/*--------------------------------*- C++ -*----------------------------------*\
| =========                 |                                                 |
| \\      /  F ield         | OpenFOAM: The Open Source CFD Toolbox           |
|  \\    /   O peration     | Version:  2.4.x                                 |
|   \\  /    A nd           | Web:      www.OpenFOAM.org                      |
|    \\/     M anipulation  |                                                 |
\*---------------------------------------------------------------------------*/
FoamFile
{
    version     2.0;
    format      ascii;
    class       dictionary;
    location    "system";
    object      controlDict;
}
// * * * * * * * * * * * * * * * * * * * * * * * * * * * * * * * * * * * * * //

application     pimpleFoam;

startFrom       latestTime;

startTime       0;

stopAt          endTime;

endTime         20;

deltaT          2e-3;

writeControl    runTime;

writeInterval   0.1;

purgeWrite      0;

writeFormat     ascii;

writePrecision  6;

writeCompression off;

timeFormat      general;

timePrecision   6;

runTimeModifiable true;

adjustTimeStep  true;

maxCo           2.0;

functions
{
    forceCoeffs
    {
        type                forceCoeffs;
        functionObjectLibs  ("libforces.so");
        outputControl       timeStep;
        outputInterval      1;

        patches             (foil);
        pName               p;
        UName               U;
        rhoName             rhoInf;
        log                 true;

        liftDir             (0 1 0);
        dragDir             (1 0 0);
        CofR                (0 0 0);
        pitchAxis           (0 0 1);

        magUInf             1.0;
        rhoInf              1000;
        lRef                0.14;
        Aref                0.14;
    }
}


// ************************************************************************* //
