/*--------------------------------*- C++ -*----------------------------------*\
| =========                 |                                                 |
| \\      /  F ield         | OpenFOAM: The Open Source CFD Toolbox           |
|  \\    /   O peration     | Version:  2.4.x                                 |
|   \\  /    A nd           | Web:      www.OpenFOAM.org                      |
|    \\/     M anipulation  |                                                 |
\*---------------------------------------------------------------------------*/
FoamFile
{
    version     2.0;
    format      ascii;
    class       dictionary;
    location    "system";
    object      fvOptions;
}
// * * * * * * * * * * * * * * * * * * * * * * * * * * * * * * * * * * * * * //

foil
{
    type            actuatorLineSource;
    active          on;            // on/off switch
    selectionMode   cellSet;       // cellSet, points, cellZone
    cellSet         foil;          // cellSet name

    actuatorLineSourceCoeffs
    {
        fieldNames          (U);
        freeStreamVelocity  (1 0 0);
        nElements           14;
        writePerf           true;
        writeElementPerf    true;
        endEffects          on;

        elementGeometry // Will be interpolated linearly per nElements
        ( // point spanDir chordLength chordRefDir chordMount pitch
            ((0.0 0.0 -0.5) (0 0 1) (0.14) (-1 0 0) (0.25) (-8.0))
            ((0.0 0.0 0.5) (0 0 1) (0.14) (-1 0 0) (0.25) (-8.0))
        );

        elementProfiles (profile0); // Will be distributed evenly

        profileData
        {
            profile0
            {
                data
                ( // alpha C_l C_d
                    #include "NACA0021_1.6e5"
                );
            }
        }
    }
}

// ************************************************************************* //
